Version 4
SHEET 1 880 680
WIRE 240 -112 160 -112
WIRE 400 -112 320 -112
WIRE 480 -112 400 -112
WIRE 160 -48 160 -112
WIRE 480 16 480 -112
WIRE 400 32 400 -112
WIRE 160 80 160 32
WIRE 160 176 160 160
WIRE 320 176 160 176
WIRE 400 176 400 96
WIRE 400 176 320 176
WIRE 480 176 480 96
WIRE 480 176 400 176
WIRE 320 192 320 176
FLAG 320 192 0
SYMBOL voltage 160 -64 R0
SYMATTR InstName V1
SYMATTR Value SINE(0 5 50)
SYMBOL voltage 160 64 R0
SYMATTR InstName V2
SYMATTR Value 20
SYMBOL res 336 -128 R90
WINDOW 0 0 56 VBottom 2
WINDOW 3 32 56 VTop 2
SYMATTR InstName R1
SYMATTR Value 500
SYMBOL res 464 0 R0
SYMATTR InstName R2
SYMATTR Value 500
SYMBOL advee_components/BZX55C5V6 416 96 R180
WINDOW 0 24 72 Left 0
WINDOW 3 24 0 Left 0
SYMATTR InstName U1
TEXT 168 224 Left 2 !.tran 0 1 900m .05m
