Version 4
SHEET 1 880 680
WIRE 144 192 96 192
WIRE 288 192 224 192
WIRE 96 240 96 192
WIRE 288 240 288 192
WIRE 96 352 96 320
WIRE 192 352 96 352
WIRE 288 352 288 304
WIRE 288 352 192 352
WIRE 192 368 192 352
FLAG 192 368 0
SYMBOL voltage 96 224 R0
SYMATTR InstName V1
SYMBOL res 240 176 R90
WINDOW 0 0 56 VBottom 2
WINDOW 3 32 56 VTop 2
SYMATTR InstName R1
SYMATTR Value 1K00
SYMBOL advee_components/1N4001 272 240 R0
SYMATTR InstName U1
TEXT 96 144 Left 2 !.dc V1 0 5 0.01
