Version 4
SHEET 1 880 680
WIRE 352 0 16 0
WIRE 352 32 352 0
WIRE 352 32 304 32
WIRE 400 32 352 32
WIRE 16 64 16 0
WIRE 304 112 304 96
WIRE 304 112 256 112
WIRE 400 112 400 96
WIRE 624 112 400 112
WIRE 304 144 304 112
WIRE 400 144 400 112
WIRE 624 160 624 112
WIRE 352 208 304 208
WIRE 400 208 352 208
WIRE 16 240 16 144
WIRE 352 240 352 208
WIRE 352 240 16 240
WIRE 256 288 256 112
WIRE 400 288 256 288
WIRE 624 288 400 288
WIRE 624 288 624 240
WIRE 400 304 400 288
FLAG 400 304 0
SYMBOL advee_components/DF02M-D 320 96 R180
WINDOW 3 41 32 Left 0
WINDOW 0 24 72 Left 0
SYMATTR InstName U1
SYMBOL advee_components/DF02M-D 384 32 R0
SYMATTR InstName U2
SYMBOL advee_components/DF02M-D 288 144 R0
SYMATTR InstName U3
SYMBOL advee_components/DF02M-D 416 208 R180
WINDOW 3 41 32 Left 0
WINDOW 0 24 72 Left 0
SYMATTR InstName U4
SYMBOL voltage 16 48 R0
WINDOW 39 24 118 Left 2
SYMATTR SpiceLine Rser=50
SYMATTR InstName V1
SYMATTR Value SINE(0 10 100)
SYMBOL res 608 144 R0
SYMATTR InstName R1
SYMATTR Value 2K20
TEXT 112 -112 Left 2 !.tran 0 1 906m .05m
