Version 4
SHEET 1 880 680
WIRE 112 112 16 112
WIRE 224 112 176 112
WIRE 320 112 224 112
WIRE 16 176 16 112
WIRE 224 176 224 112
WIRE 320 176 320 112
WIRE 16 304 16 256
WIRE 176 304 16 304
WIRE 224 304 224 240
WIRE 224 304 176 304
WIRE 320 304 320 256
WIRE 320 304 224 304
WIRE 176 320 176 304
FLAG 176 320 0
SYMBOL voltage 16 160 R0
WINDOW 39 24 118 Left 2
SYMATTR SpiceLine Rser=50
SYMATTR InstName V1
SYMATTR Value SINE(0 10 100)
SYMBOL advee_components/1N4001 112 128 R270
WINDOW 3 0 32 VBottom 2
WINDOW 0 32 32 VTop 2
SYMATTR InstName U1
SYMBOL res 304 160 R0
SYMATTR InstName R1
SYMATTR Value 2K20
SYMBOL cap 208 176 R0
SYMATTR InstName C1
SYMATTR Value 47µF
TEXT -72 40 Left 2 !.tran 0 1 960m .05m
