Version 4
SHEET 1 880 680
WIRE 0 -480 -176 -480
WIRE -176 -464 -176 -480
WIRE -176 -416 -176 -448
WIRE -224 -384 -240 -384
WIRE 0 -368 0 -480
WIRE -240 -336 -240 -384
WIRE -240 -336 -352 -336
WIRE -224 -336 -240 -336
WIRE -176 -336 -176 -368
WIRE -176 -336 -192 -336
WIRE -112 -336 -176 -336
WIRE -176 -304 -176 -336
WIRE -352 -288 -352 -336
WIRE -112 -288 -112 -336
WIRE -240 -224 -240 -336
WIRE -224 -224 -240 -224
WIRE -176 -224 -176 -256
WIRE -176 -192 -176 -208
WIRE -112 -192 -112 -224
WIRE -112 -192 -176 -192
WIRE 0 -192 0 -288
WIRE 0 -192 -112 -192
WIRE -352 -176 -352 -208
WIRE -176 -176 -176 -192
FLAG -352 -176 0
FLAG -176 -176 0
FLAG -240 -336 input
SYMBOL advee_components/MbreakP -224 -464 R0
SYMATTR InstName U1
SYMBOL advee_components/MbreakN -224 -304 R0
SYMATTR InstName U2
SYMBOL voltage 0 -384 R0
SYMATTR InstName V1
SYMATTR Value 5V
SYMBOL voltage -352 -304 R0
WINDOW 3 -62 159 Left 2
SYMATTR InstName V2
SYMATTR Value PULSE(0 5 0 20ns 20ns 0.5m 1m)
SYMBOL cap -128 -288 R0
SYMATTR InstName C1
SYMATTR Value 100pF
TEXT -320 -120 Left 2 !.tran 0 500.8us 499.9us
