Version 4
SHEET 1 880 680
WIRE 208 -560 -336 -560
WIRE -192 -528 -208 -528
WIRE -32 -528 -192 -528
WIRE -16 -528 -32 -528
WIRE 144 -528 -16 -528
WIRE 160 -528 144 -528
WIRE 256 -528 160 -528
WIRE -208 -512 -208 -528
WIRE -32 -512 -32 -528
WIRE 144 -512 144 -528
WIRE -192 -464 -192 -528
WIRE -192 -464 -208 -464
WIRE -16 -464 -16 -528
WIRE -16 -464 -32 -464
WIRE 160 -464 160 -528
WIRE 160 -464 144 -464
WIRE -256 -432 -272 -432
WIRE -80 -432 -96 -432
WIRE 96 -432 80 -432
WIRE 256 -432 256 -528
WIRE -336 -400 -336 -560
WIRE -272 -400 -272 -432
WIRE -272 -400 -336 -400
WIRE -208 -400 -208 -416
WIRE -160 -400 -208 -400
WIRE -96 -400 -96 -432
WIRE -96 -400 -160 -400
WIRE -32 -400 -32 -416
WIRE 16 -400 -32 -400
WIRE 80 -400 80 -432
WIRE 80 -400 16 -400
WIRE 144 -400 144 -416
WIRE 192 -400 144 -400
WIRE 208 -400 208 -560
WIRE 208 -400 192 -400
WIRE -208 -384 -208 -400
WIRE -32 -384 -32 -400
WIRE 144 -384 144 -400
WIRE -160 -368 -160 -400
WIRE 16 -368 16 -400
WIRE 192 -368 192 -400
WIRE -192 -336 -208 -336
WIRE -16 -336 -32 -336
WIRE 160 -336 144 -336
WIRE -272 -304 -272 -400
WIRE -256 -304 -272 -304
WIRE -96 -304 -96 -400
WIRE -80 -304 -96 -304
WIRE 80 -304 80 -400
WIRE 96 -304 80 -304
WIRE -208 -272 -208 -288
WIRE -192 -272 -192 -336
WIRE -192 -272 -208 -272
WIRE -160 -272 -160 -304
WIRE -160 -272 -192 -272
WIRE -32 -272 -32 -288
WIRE -32 -272 -160 -272
WIRE -16 -272 -16 -336
WIRE -16 -272 -32 -272
WIRE 16 -272 16 -304
WIRE 16 -272 -16 -272
WIRE 144 -272 144 -288
WIRE 144 -272 16 -272
WIRE 160 -272 160 -336
WIRE 160 -272 144 -272
WIRE 192 -272 192 -304
WIRE 192 -272 160 -272
WIRE 256 -272 256 -352
WIRE 256 -272 192 -272
WIRE -32 -256 -32 -272
FLAG -32 -256 0
FLAG -336 -400 input
SYMBOL advee_components/MbreakP -256 -512 R0
SYMATTR InstName U1
SYMBOL advee_components/MbreakN -256 -384 R0
SYMATTR InstName U2
SYMBOL advee_components/MbreakP -80 -512 R0
SYMATTR InstName U3
SYMBOL advee_components/MbreakN -80 -384 R0
SYMATTR InstName U4
SYMBOL advee_components/MbreakP 96 -512 R0
SYMATTR InstName U5
SYMBOL advee_components/MbreakN 96 -384 R0
SYMATTR InstName U6
SYMBOL voltage 256 -448 R0
SYMATTR InstName V1
SYMATTR Value 5V
SYMBOL cap -176 -368 R0
SYMATTR InstName C1
SYMATTR Value 50pF
SYMBOL cap 0 -368 R0
SYMATTR InstName C2
SYMATTR Value 50pF
SYMBOL cap 176 -368 R0
SYMATTR InstName C3
SYMATTR Value 50pF
TEXT -344 -248 Left 2 !.ic V(input) = 1\n.tran 1.5us
