Version 4
SHEET 1 880 680
WIRE -32 -480 -176 -480
WIRE -176 -464 -176 -480
WIRE -176 -416 -176 -448
WIRE -224 -384 -240 -384
WIRE -32 -368 -32 -480
WIRE -240 -336 -240 -384
WIRE -240 -336 -352 -336
WIRE -224 -336 -240 -336
WIRE -176 -336 -176 -368
WIRE -176 -336 -192 -336
WIRE -176 -304 -176 -336
WIRE -352 -288 -352 -336
WIRE -240 -224 -240 -336
WIRE -224 -224 -240 -224
WIRE -176 -224 -176 -256
WIRE -176 -192 -176 -208
WIRE -32 -192 -32 -288
WIRE -32 -192 -176 -192
WIRE -352 -176 -352 -208
WIRE -176 -176 -176 -192
FLAG -352 -176 0
FLAG -176 -176 0
FLAG -240 -336 input
FLAG -176 -336 output
SYMBOL advee_components/MbreakP -224 -464 R0
SYMATTR InstName U1
SYMBOL advee_components/MbreakN -224 -304 R0
SYMATTR InstName U2
SYMBOL voltage -32 -384 R0
SYMATTR InstName V1
SYMATTR Value 5V
SYMBOL voltage -352 -304 R0
SYMATTR InstName V2
TEXT -416 -456 Left 2 !.dc V2 0 5 1m
